<?xml version="1.0" encoding="UTF-8"?>

<!-- generated on 2024-03-17 19:52:50 by Eclipse SUMO sumo Version 1.19.0
-->

<configuration xmlns:xsi="http://www.w3.org/2001/XMLSchema-instance" xsi:noNamespaceSchemaLocation="http://sumo.dlr.de/xsd/sumoConfiguration.xsd">

    <input>
        <net-file value="PED_.net.xml"/>
        <route-files value="pes.rou.xml"/>
    </input>

</configuration>
