<?xml version="1.0" encoding="UTF-8"?>

<!-- generated on 2024-11-10 21:22:53.741868 by randomTrips.py v1_19_0+0000-baa66a0f364
<configuration>
    <net-file value="learning_net.net.xml"/>
    <route-file value="learning_rou.rou.xml"/>
    <pedestrians value="True"/>
    <end value="500.0"/>
    <period value="0.5"/>
</configuration>
-->

<routes xmlns:xsi="http://www.w3.org/2001/XMLSchema-instance" xsi:noNamespaceSchemaLocation="http://sumo.dlr.de/xsd/routes_file.xsd">
    <person id="0" depart="0.00">
        <walk from="on-ramp" to="incoming"/>
    </person>
    <person id="1" depart="0.50">
        <walk from="merging" to="incoming"/>
    </person>
    <person id="2" depart="1.00">
        <walk from="on-ramp" to="on-ramp"/>
    </person>
    <person id="3" depart="1.50">
        <walk from="outgoing" to="incoming"/>
    </person>
    <person id="4" depart="2.00">
        <walk from="merging" to="incoming"/>
    </person>
    <person id="5" depart="2.50">
        <walk from="incoming" to="on-ramp"/>
    </person>
    <person id="6" depart="3.00">
        <walk from="incoming" to="incoming"/>
    </person>
    <person id="7" depart="3.50">
        <walk from="on-ramp" to="on-ramp"/>
    </person>
    <person id="8" depart="4.00">
        <walk from="incoming" to="on-ramp"/>
    </person>
    <person id="9" depart="4.50">
        <walk from="outgoing" to="incoming"/>
    </person>
    <person id="10" depart="5.00">
        <walk from="outgoing" to="on-ramp"/>
    </person>
    <person id="11" depart="5.50">
        <walk from="merging" to="incoming"/>
    </person>
    <person id="12" depart="6.00">
        <walk from="outgoing" to="merging"/>
    </person>
    <person id="13" depart="6.50">
        <walk from="incoming" to="incoming"/>
    </person>
    <person id="14" depart="7.00">
        <walk from="outgoing" to="on-ramp"/>
    </person>
    <person id="15" depart="7.50">
        <walk from="outgoing" to="on-ramp"/>
    </person>
    <person id="16" depart="8.00">
        <walk from="on-ramp" to="outgoing"/>
    </person>
    <person id="17" depart="8.50">
        <walk from="merging" to="on-ramp"/>
    </person>
    <person id="18" depart="9.00">
        <walk from="outgoing" to="on-ramp"/>
    </person>
    <person id="19" depart="9.50">
        <walk from="outgoing" to="on-ramp"/>
    </person>
    <person id="20" depart="10.00">
        <walk from="on-ramp" to="incoming"/>
    </person>
    <person id="21" depart="10.50">
        <walk from="incoming" to="merging"/>
    </person>
    <person id="22" depart="11.00">
        <walk from="incoming" to="incoming"/>
    </person>
    <person id="23" depart="11.50">
        <walk from="incoming" to="merging"/>
    </person>
    <person id="24" depart="12.00">
        <walk from="on-ramp" to="merging"/>
    </person>
    <person id="25" depart="12.50">
        <walk from="merging" to="incoming"/>
    </person>
    <person id="26" depart="13.00">
        <walk from="merging" to="outgoing"/>
    </person>
    <person id="27" depart="13.50">
        <walk from="on-ramp" to="on-ramp"/>
    </person>
    <person id="28" depart="14.00">
        <walk from="incoming" to="on-ramp"/>
    </person>
    <person id="29" depart="14.50">
        <walk from="incoming" to="merging"/>
    </person>
    <person id="30" depart="15.00">
        <walk from="outgoing" to="on-ramp"/>
    </person>
    <person id="31" depart="15.50">
        <walk from="on-ramp" to="on-ramp"/>
    </person>
    <person id="32" depart="16.00">
        <walk from="outgoing" to="outgoing"/>
    </person>
    <person id="33" depart="16.50">
        <walk from="incoming" to="incoming"/>
    </person>
    <person id="34" depart="17.00">
        <walk from="merging" to="merging"/>
    </person>
    <person id="35" depart="17.50">
        <walk from="incoming" to="outgoing"/>
    </person>
    <person id="36" depart="18.00">
        <walk from="outgoing" to="merging"/>
    </person>
    <person id="37" depart="18.50">
        <walk from="on-ramp" to="merging"/>
    </person>
    <person id="38" depart="19.00">
        <walk from="outgoing" to="merging"/>
    </person>
    <person id="39" depart="19.50">
        <walk from="merging" to="incoming"/>
    </person>
    <person id="40" depart="20.00">
        <walk from="on-ramp" to="merging"/>
    </person>
    <person id="41" depart="20.50">
        <walk from="on-ramp" to="outgoing"/>
    </person>
    <person id="42" depart="21.00">
        <walk from="merging" to="incoming"/>
    </person>
    <person id="43" depart="21.50">
        <walk from="outgoing" to="on-ramp"/>
    </person>
    <person id="44" depart="22.00">
        <walk from="incoming" to="incoming"/>
    </person>
    <person id="45" depart="22.50">
        <walk from="incoming" to="on-ramp"/>
    </person>
    <person id="46" depart="23.00">
        <walk from="outgoing" to="merging"/>
    </person>
    <person id="47" depart="23.50">
        <walk from="incoming" to="merging"/>
    </person>
    <person id="48" depart="24.00">
        <walk from="outgoing" to="on-ramp"/>
    </person>
    <person id="49" depart="24.50">
        <walk from="outgoing" to="outgoing"/>
    </person>
    <person id="50" depart="25.00">
        <walk from="incoming" to="on-ramp"/>
    </person>
    <person id="51" depart="25.50">
        <walk from="on-ramp" to="on-ramp"/>
    </person>
    <person id="52" depart="26.00">
        <walk from="merging" to="on-ramp"/>
    </person>
    <person id="53" depart="26.50">
        <walk from="incoming" to="merging"/>
    </person>
    <person id="54" depart="27.00">
        <walk from="merging" to="outgoing"/>
    </person>
    <person id="55" depart="27.50">
        <walk from="outgoing" to="merging"/>
    </person>
    <person id="56" depart="28.00">
        <walk from="on-ramp" to="incoming"/>
    </person>
    <person id="57" depart="28.50">
        <walk from="outgoing" to="outgoing"/>
    </person>
    <person id="58" depart="29.00">
        <walk from="merging" to="on-ramp"/>
    </person>
    <person id="59" depart="29.50">
        <walk from="on-ramp" to="incoming"/>
    </person>
    <person id="60" depart="30.00">
        <walk from="outgoing" to="on-ramp"/>
    </person>
    <person id="61" depart="30.50">
        <walk from="outgoing" to="on-ramp"/>
    </person>
    <person id="62" depart="31.00">
        <walk from="incoming" to="merging"/>
    </person>
    <person id="63" depart="31.50">
        <walk from="incoming" to="outgoing"/>
    </person>
    <person id="64" depart="32.00">
        <walk from="outgoing" to="outgoing"/>
    </person>
    <person id="65" depart="32.50">
        <walk from="merging" to="incoming"/>
    </person>
    <person id="66" depart="33.00">
        <walk from="outgoing" to="outgoing"/>
    </person>
    <person id="67" depart="33.50">
        <walk from="incoming" to="merging"/>
    </person>
    <person id="68" depart="34.00">
        <walk from="incoming" to="outgoing"/>
    </person>
    <person id="69" depart="34.50">
        <walk from="outgoing" to="incoming"/>
    </person>
    <person id="70" depart="35.00">
        <walk from="merging" to="on-ramp"/>
    </person>
    <person id="71" depart="35.50">
        <walk from="merging" to="outgoing"/>
    </person>
    <person id="72" depart="36.00">
        <walk from="merging" to="incoming"/>
    </person>
    <person id="73" depart="36.50">
        <walk from="on-ramp" to="on-ramp"/>
    </person>
    <person id="74" depart="37.00">
        <walk from="incoming" to="merging"/>
    </person>
    <person id="75" depart="37.50">
        <walk from="outgoing" to="on-ramp"/>
    </person>
    <person id="76" depart="38.00">
        <walk from="merging" to="on-ramp"/>
    </person>
    <person id="77" depart="38.50">
        <walk from="incoming" to="incoming"/>
    </person>
    <person id="78" depart="39.00">
        <walk from="merging" to="on-ramp"/>
    </person>
    <person id="79" depart="39.50">
        <walk from="incoming" to="incoming"/>
    </person>
    <person id="80" depart="40.00">
        <walk from="incoming" to="on-ramp"/>
    </person>
    <person id="81" depart="40.50">
        <walk from="incoming" to="outgoing"/>
    </person>
    <person id="82" depart="41.00">
        <walk from="outgoing" to="incoming"/>
    </person>
    <person id="83" depart="41.50">
        <walk from="incoming" to="on-ramp"/>
    </person>
    <person id="84" depart="42.00">
        <walk from="incoming" to="incoming"/>
    </person>
    <person id="85" depart="42.50">
        <walk from="outgoing" to="on-ramp"/>
    </person>
    <person id="86" depart="43.00">
        <walk from="merging" to="outgoing"/>
    </person>
    <person id="87" depart="43.50">
        <walk from="outgoing" to="incoming"/>
    </person>
    <person id="88" depart="44.00">
        <walk from="incoming" to="merging"/>
    </person>
    <person id="89" depart="44.50">
        <walk from="merging" to="merging"/>
    </person>
    <person id="90" depart="45.00">
        <walk from="on-ramp" to="on-ramp"/>
    </person>
    <person id="91" depart="45.50">
        <walk from="outgoing" to="incoming"/>
    </person>
    <person id="92" depart="46.00">
        <walk from="merging" to="merging"/>
    </person>
    <person id="93" depart="46.50">
        <walk from="outgoing" to="incoming"/>
    </person>
    <person id="94" depart="47.00">
        <walk from="incoming" to="merging"/>
    </person>
    <person id="95" depart="47.50">
        <walk from="merging" to="merging"/>
    </person>
    <person id="96" depart="48.00">
        <walk from="incoming" to="outgoing"/>
    </person>
    <person id="97" depart="48.50">
        <walk from="merging" to="outgoing"/>
    </person>
    <person id="98" depart="49.00">
        <walk from="on-ramp" to="incoming"/>
    </person>
    <person id="99" depart="49.50">
        <walk from="outgoing" to="outgoing"/>
    </person>
    <person id="100" depart="50.00">
        <walk from="outgoing" to="outgoing"/>
    </person>
    <person id="101" depart="50.50">
        <walk from="outgoing" to="incoming"/>
    </person>
    <person id="102" depart="51.00">
        <walk from="merging" to="incoming"/>
    </person>
    <person id="103" depart="51.50">
        <walk from="merging" to="incoming"/>
    </person>
    <person id="104" depart="52.00">
        <walk from="merging" to="outgoing"/>
    </person>
    <person id="105" depart="52.50">
        <walk from="merging" to="outgoing"/>
    </person>
    <person id="106" depart="53.00">
        <walk from="merging" to="merging"/>
    </person>
    <person id="107" depart="53.50">
        <walk from="outgoing" to="outgoing"/>
    </person>
    <person id="108" depart="54.00">
        <walk from="on-ramp" to="on-ramp"/>
    </person>
    <person id="109" depart="54.50">
        <walk from="incoming" to="merging"/>
    </person>
    <person id="110" depart="55.00">
        <walk from="outgoing" to="on-ramp"/>
    </person>
    <person id="111" depart="55.50">
        <walk from="on-ramp" to="on-ramp"/>
    </person>
    <person id="112" depart="56.00">
        <walk from="incoming" to="on-ramp"/>
    </person>
    <person id="113" depart="56.50">
        <walk from="on-ramp" to="outgoing"/>
    </person>
    <person id="114" depart="57.00">
        <walk from="incoming" to="outgoing"/>
    </person>
    <person id="115" depart="57.50">
        <walk from="incoming" to="incoming"/>
    </person>
    <person id="116" depart="58.00">
        <walk from="on-ramp" to="on-ramp"/>
    </person>
    <person id="117" depart="58.50">
        <walk from="incoming" to="incoming"/>
    </person>
    <person id="118" depart="59.00">
        <walk from="outgoing" to="incoming"/>
    </person>
    <person id="119" depart="59.50">
        <walk from="on-ramp" to="on-ramp"/>
    </person>
    <person id="120" depart="60.00">
        <walk from="merging" to="on-ramp"/>
    </person>
    <person id="121" depart="60.50">
        <walk from="on-ramp" to="outgoing"/>
    </person>
    <person id="122" depart="61.00">
        <walk from="incoming" to="on-ramp"/>
    </person>
    <person id="123" depart="61.50">
        <walk from="incoming" to="merging"/>
    </person>
    <person id="124" depart="62.00">
        <walk from="on-ramp" to="merging"/>
    </person>
    <person id="125" depart="62.50">
        <walk from="merging" to="outgoing"/>
    </person>
    <person id="126" depart="63.00">
        <walk from="incoming" to="merging"/>
    </person>
    <person id="127" depart="63.50">
        <walk from="outgoing" to="outgoing"/>
    </person>
    <person id="128" depart="64.00">
        <walk from="incoming" to="incoming"/>
    </person>
    <person id="129" depart="64.50">
        <walk from="merging" to="outgoing"/>
    </person>
    <person id="130" depart="65.00">
        <walk from="outgoing" to="outgoing"/>
    </person>
    <person id="131" depart="65.50">
        <walk from="merging" to="incoming"/>
    </person>
    <person id="132" depart="66.00">
        <walk from="outgoing" to="on-ramp"/>
    </person>
    <person id="133" depart="66.50">
        <walk from="on-ramp" to="outgoing"/>
    </person>
    <person id="134" depart="67.00">
        <walk from="on-ramp" to="incoming"/>
    </person>
    <person id="135" depart="67.50">
        <walk from="outgoing" to="merging"/>
    </person>
    <person id="136" depart="68.00">
        <walk from="on-ramp" to="outgoing"/>
    </person>
    <person id="137" depart="68.50">
        <walk from="incoming" to="incoming"/>
    </person>
    <person id="138" depart="69.00">
        <walk from="incoming" to="on-ramp"/>
    </person>
    <person id="139" depart="69.50">
        <walk from="merging" to="on-ramp"/>
    </person>
    <person id="140" depart="70.00">
        <walk from="on-ramp" to="incoming"/>
    </person>
    <person id="141" depart="70.50">
        <walk from="on-ramp" to="merging"/>
    </person>
    <person id="142" depart="71.00">
        <walk from="merging" to="outgoing"/>
    </person>
    <person id="143" depart="71.50">
        <walk from="outgoing" to="incoming"/>
    </person>
    <person id="144" depart="72.00">
        <walk from="merging" to="merging"/>
    </person>
    <person id="145" depart="72.50">
        <walk from="incoming" to="outgoing"/>
    </person>
    <person id="146" depart="73.00">
        <walk from="on-ramp" to="merging"/>
    </person>
    <person id="147" depart="73.50">
        <walk from="on-ramp" to="on-ramp"/>
    </person>
    <person id="148" depart="74.00">
        <walk from="merging" to="incoming"/>
    </person>
    <person id="149" depart="74.50">
        <walk from="incoming" to="outgoing"/>
    </person>
    <person id="150" depart="75.00">
        <walk from="outgoing" to="on-ramp"/>
    </person>
    <person id="151" depart="75.50">
        <walk from="outgoing" to="on-ramp"/>
    </person>
    <person id="152" depart="76.00">
        <walk from="incoming" to="incoming"/>
    </person>
    <person id="153" depart="76.50">
        <walk from="merging" to="outgoing"/>
    </person>
    <person id="154" depart="77.00">
        <walk from="outgoing" to="outgoing"/>
    </person>
    <person id="155" depart="77.50">
        <walk from="outgoing" to="incoming"/>
    </person>
    <person id="156" depart="78.00">
        <walk from="incoming" to="incoming"/>
    </person>
    <person id="157" depart="78.50">
        <walk from="outgoing" to="outgoing"/>
    </person>
    <person id="158" depart="79.00">
        <walk from="merging" to="on-ramp"/>
    </person>
    <person id="159" depart="79.50">
        <walk from="incoming" to="outgoing"/>
    </person>
    <person id="160" depart="80.00">
        <walk from="outgoing" to="outgoing"/>
    </person>
    <person id="161" depart="80.50">
        <walk from="outgoing" to="outgoing"/>
    </person>
    <person id="162" depart="81.00">
        <walk from="incoming" to="on-ramp"/>
    </person>
    <person id="163" depart="81.50">
        <walk from="merging" to="outgoing"/>
    </person>
    <person id="164" depart="82.00">
        <walk from="outgoing" to="outgoing"/>
    </person>
    <person id="165" depart="82.50">
        <walk from="outgoing" to="merging"/>
    </person>
    <person id="166" depart="83.00">
        <walk from="outgoing" to="incoming"/>
    </person>
    <person id="167" depart="83.50">
        <walk from="outgoing" to="outgoing"/>
    </person>
    <person id="168" depart="84.00">
        <walk from="incoming" to="outgoing"/>
    </person>
    <person id="169" depart="84.50">
        <walk from="merging" to="merging"/>
    </person>
    <person id="170" depart="85.00">
        <walk from="outgoing" to="incoming"/>
    </person>
    <person id="171" depart="85.50">
        <walk from="incoming" to="incoming"/>
    </person>
    <person id="172" depart="86.00">
        <walk from="merging" to="outgoing"/>
    </person>
    <person id="173" depart="86.50">
        <walk from="outgoing" to="merging"/>
    </person>
    <person id="174" depart="87.00">
        <walk from="on-ramp" to="merging"/>
    </person>
    <person id="175" depart="87.50">
        <walk from="outgoing" to="on-ramp"/>
    </person>
    <person id="176" depart="88.00">
        <walk from="outgoing" to="incoming"/>
    </person>
    <person id="177" depart="88.50">
        <walk from="outgoing" to="incoming"/>
    </person>
    <person id="178" depart="89.00">
        <walk from="outgoing" to="merging"/>
    </person>
    <person id="179" depart="89.50">
        <walk from="incoming" to="merging"/>
    </person>
    <person id="180" depart="90.00">
        <walk from="on-ramp" to="merging"/>
    </person>
    <person id="181" depart="90.50">
        <walk from="on-ramp" to="on-ramp"/>
    </person>
    <person id="182" depart="91.00">
        <walk from="merging" to="on-ramp"/>
    </person>
    <person id="183" depart="91.50">
        <walk from="merging" to="on-ramp"/>
    </person>
    <person id="184" depart="92.00">
        <walk from="incoming" to="outgoing"/>
    </person>
    <person id="185" depart="92.50">
        <walk from="on-ramp" to="on-ramp"/>
    </person>
    <person id="186" depart="93.00">
        <walk from="on-ramp" to="on-ramp"/>
    </person>
    <person id="187" depart="93.50">
        <walk from="merging" to="incoming"/>
    </person>
    <person id="188" depart="94.00">
        <walk from="on-ramp" to="merging"/>
    </person>
    <person id="189" depart="94.50">
        <walk from="merging" to="outgoing"/>
    </person>
    <person id="190" depart="95.00">
        <walk from="on-ramp" to="merging"/>
    </person>
    <person id="191" depart="95.50">
        <walk from="merging" to="merging"/>
    </person>
    <person id="192" depart="96.00">
        <walk from="merging" to="merging"/>
    </person>
    <person id="193" depart="96.50">
        <walk from="incoming" to="merging"/>
    </person>
    <person id="194" depart="97.00">
        <walk from="outgoing" to="on-ramp"/>
    </person>
    <person id="195" depart="97.50">
        <walk from="outgoing" to="on-ramp"/>
    </person>
    <person id="196" depart="98.00">
        <walk from="merging" to="on-ramp"/>
    </person>
    <person id="197" depart="98.50">
        <walk from="incoming" to="merging"/>
    </person>
    <person id="198" depart="99.00">
        <walk from="merging" to="on-ramp"/>
    </person>
    <person id="199" depart="99.50">
        <walk from="on-ramp" to="merging"/>
    </person>
    <person id="200" depart="100.00">
        <walk from="merging" to="incoming"/>
    </person>
    <person id="201" depart="100.50">
        <walk from="merging" to="outgoing"/>
    </person>
    <person id="202" depart="101.00">
        <walk from="outgoing" to="incoming"/>
    </person>
    <person id="203" depart="101.50">
        <walk from="incoming" to="on-ramp"/>
    </person>
    <person id="204" depart="102.00">
        <walk from="on-ramp" to="merging"/>
    </person>
    <person id="205" depart="102.50">
        <walk from="outgoing" to="outgoing"/>
    </person>
    <person id="206" depart="103.00">
        <walk from="on-ramp" to="incoming"/>
    </person>
    <person id="207" depart="103.50">
        <walk from="incoming" to="incoming"/>
    </person>
    <person id="208" depart="104.00">
        <walk from="incoming" to="merging"/>
    </person>
    <person id="209" depart="104.50">
        <walk from="outgoing" to="incoming"/>
    </person>
    <person id="210" depart="105.00">
        <walk from="merging" to="on-ramp"/>
    </person>
    <person id="211" depart="105.50">
        <walk from="incoming" to="on-ramp"/>
    </person>
    <person id="212" depart="106.00">
        <walk from="merging" to="incoming"/>
    </person>
    <person id="213" depart="106.50">
        <walk from="on-ramp" to="incoming"/>
    </person>
    <person id="214" depart="107.00">
        <walk from="outgoing" to="outgoing"/>
    </person>
    <person id="215" depart="107.50">
        <walk from="incoming" to="merging"/>
    </person>
    <person id="216" depart="108.00">
        <walk from="incoming" to="outgoing"/>
    </person>
    <person id="217" depart="108.50">
        <walk from="on-ramp" to="incoming"/>
    </person>
    <person id="218" depart="109.00">
        <walk from="incoming" to="outgoing"/>
    </person>
    <person id="219" depart="109.50">
        <walk from="merging" to="outgoing"/>
    </person>
    <person id="220" depart="110.00">
        <walk from="on-ramp" to="outgoing"/>
    </person>
    <person id="221" depart="110.50">
        <walk from="on-ramp" to="outgoing"/>
    </person>
    <person id="222" depart="111.00">
        <walk from="outgoing" to="on-ramp"/>
    </person>
    <person id="223" depart="111.50">
        <walk from="on-ramp" to="on-ramp"/>
    </person>
    <person id="224" depart="112.00">
        <walk from="outgoing" to="on-ramp"/>
    </person>
    <person id="225" depart="112.50">
        <walk from="outgoing" to="on-ramp"/>
    </person>
    <person id="226" depart="113.00">
        <walk from="merging" to="merging"/>
    </person>
    <person id="227" depart="113.50">
        <walk from="incoming" to="on-ramp"/>
    </person>
    <person id="228" depart="114.00">
        <walk from="outgoing" to="on-ramp"/>
    </person>
    <person id="229" depart="114.50">
        <walk from="on-ramp" to="merging"/>
    </person>
    <person id="230" depart="115.00">
        <walk from="incoming" to="merging"/>
    </person>
    <person id="231" depart="115.50">
        <walk from="merging" to="merging"/>
    </person>
    <person id="232" depart="116.00">
        <walk from="on-ramp" to="incoming"/>
    </person>
    <person id="233" depart="116.50">
        <walk from="incoming" to="on-ramp"/>
    </person>
    <person id="234" depart="117.00">
        <walk from="on-ramp" to="incoming"/>
    </person>
    <person id="235" depart="117.50">
        <walk from="merging" to="on-ramp"/>
    </person>
    <person id="236" depart="118.00">
        <walk from="merging" to="incoming"/>
    </person>
    <person id="237" depart="118.50">
        <walk from="merging" to="outgoing"/>
    </person>
    <person id="238" depart="119.00">
        <walk from="on-ramp" to="on-ramp"/>
    </person>
    <person id="239" depart="119.50">
        <walk from="outgoing" to="outgoing"/>
    </person>
    <person id="240" depart="120.00">
        <walk from="merging" to="incoming"/>
    </person>
    <person id="241" depart="120.50">
        <walk from="merging" to="outgoing"/>
    </person>
    <person id="242" depart="121.00">
        <walk from="outgoing" to="outgoing"/>
    </person>
    <person id="243" depart="121.50">
        <walk from="merging" to="on-ramp"/>
    </person>
    <person id="244" depart="122.00">
        <walk from="on-ramp" to="on-ramp"/>
    </person>
    <person id="245" depart="122.50">
        <walk from="incoming" to="incoming"/>
    </person>
    <person id="246" depart="123.00">
        <walk from="merging" to="incoming"/>
    </person>
    <person id="247" depart="123.50">
        <walk from="merging" to="on-ramp"/>
    </person>
    <person id="248" depart="124.00">
        <walk from="merging" to="incoming"/>
    </person>
    <person id="249" depart="124.50">
        <walk from="merging" to="incoming"/>
    </person>
    <person id="250" depart="125.00">
        <walk from="on-ramp" to="incoming"/>
    </person>
    <person id="251" depart="125.50">
        <walk from="merging" to="on-ramp"/>
    </person>
    <person id="252" depart="126.00">
        <walk from="incoming" to="on-ramp"/>
    </person>
    <person id="253" depart="126.50">
        <walk from="incoming" to="merging"/>
    </person>
    <person id="254" depart="127.00">
        <walk from="incoming" to="merging"/>
    </person>
    <person id="255" depart="127.50">
        <walk from="incoming" to="merging"/>
    </person>
    <person id="256" depart="128.00">
        <walk from="outgoing" to="merging"/>
    </person>
    <person id="257" depart="128.50">
        <walk from="outgoing" to="outgoing"/>
    </person>
    <person id="258" depart="129.00">
        <walk from="merging" to="incoming"/>
    </person>
    <person id="259" depart="129.50">
        <walk from="incoming" to="on-ramp"/>
    </person>
    <person id="260" depart="130.00">
        <walk from="outgoing" to="merging"/>
    </person>
    <person id="261" depart="130.50">
        <walk from="on-ramp" to="outgoing"/>
    </person>
    <person id="262" depart="131.00">
        <walk from="on-ramp" to="outgoing"/>
    </person>
    <person id="263" depart="131.50">
        <walk from="outgoing" to="incoming"/>
    </person>
    <person id="264" depart="132.00">
        <walk from="incoming" to="incoming"/>
    </person>
    <person id="265" depart="132.50">
        <walk from="incoming" to="on-ramp"/>
    </person>
    <person id="266" depart="133.00">
        <walk from="on-ramp" to="incoming"/>
    </person>
    <person id="267" depart="133.50">
        <walk from="on-ramp" to="outgoing"/>
    </person>
    <person id="268" depart="134.00">
        <walk from="incoming" to="on-ramp"/>
    </person>
    <person id="269" depart="134.50">
        <walk from="on-ramp" to="incoming"/>
    </person>
    <person id="270" depart="135.00">
        <walk from="outgoing" to="outgoing"/>
    </person>
    <person id="271" depart="135.50">
        <walk from="incoming" to="incoming"/>
    </person>
    <person id="272" depart="136.00">
        <walk from="merging" to="on-ramp"/>
    </person>
    <person id="273" depart="136.50">
        <walk from="outgoing" to="merging"/>
    </person>
    <person id="274" depart="137.00">
        <walk from="on-ramp" to="incoming"/>
    </person>
    <person id="275" depart="137.50">
        <walk from="on-ramp" to="on-ramp"/>
    </person>
    <person id="276" depart="138.00">
        <walk from="incoming" to="outgoing"/>
    </person>
    <person id="277" depart="138.50">
        <walk from="outgoing" to="on-ramp"/>
    </person>
    <person id="278" depart="139.00">
        <walk from="incoming" to="outgoing"/>
    </person>
    <person id="279" depart="139.50">
        <walk from="outgoing" to="merging"/>
    </person>
    <person id="280" depart="140.00">
        <walk from="merging" to="merging"/>
    </person>
    <person id="281" depart="140.50">
        <walk from="on-ramp" to="merging"/>
    </person>
    <person id="282" depart="141.00">
        <walk from="outgoing" to="outgoing"/>
    </person>
    <person id="283" depart="141.50">
        <walk from="incoming" to="outgoing"/>
    </person>
    <person id="284" depart="142.00">
        <walk from="on-ramp" to="outgoing"/>
    </person>
    <person id="285" depart="142.50">
        <walk from="on-ramp" to="merging"/>
    </person>
    <person id="286" depart="143.00">
        <walk from="on-ramp" to="outgoing"/>
    </person>
    <person id="287" depart="143.50">
        <walk from="merging" to="outgoing"/>
    </person>
    <person id="288" depart="144.00">
        <walk from="on-ramp" to="merging"/>
    </person>
    <person id="289" depart="144.50">
        <walk from="merging" to="on-ramp"/>
    </person>
    <person id="290" depart="145.00">
        <walk from="merging" to="outgoing"/>
    </person>
    <person id="291" depart="145.50">
        <walk from="outgoing" to="incoming"/>
    </person>
    <person id="292" depart="146.00">
        <walk from="outgoing" to="incoming"/>
    </person>
    <person id="293" depart="146.50">
        <walk from="merging" to="on-ramp"/>
    </person>
    <person id="294" depart="147.00">
        <walk from="merging" to="incoming"/>
    </person>
    <person id="295" depart="147.50">
        <walk from="outgoing" to="incoming"/>
    </person>
    <person id="296" depart="148.00">
        <walk from="incoming" to="outgoing"/>
    </person>
    <person id="297" depart="148.50">
        <walk from="merging" to="outgoing"/>
    </person>